/*--------------------------------*- C++ -*----------------------------------*\
| =========                 |                                                 |
| \\      /  F ield         | OpenFOAM: The Open Source CFD Toolbox           |
|  \\    /   O peration     | Version:  v1706                                 |
|   \\  /    A nd           | Web:      www.OpenFOAM.com                      |
|    \\/     M anipulation  |                                                 |
\*---------------------------------------------------------------------------*/
FoamFile
{
    version     2.0;
    format      ascii;
    class       polyBoundaryMesh;
    location    "constant/polyMesh";
    object      boundary;
}
// * * * * * * * * * * * * * * * * * * * * * * * * * * * * * * * * * * * * * //

5
(
    outlet
    {
        type            patch;
        physicalType    patch;
        nFaces          10;
        startFace       7004;
    }
    tunnel
    {
        type            patch;
        physicalType    patch;
        nFaces          40;
        startFace       7014;
    }
    inlet
    {
        type            patch;
        physicalType    patch;
        nFaces          10;
        startFace       7054;
    }
    airfoil
    {
        type            patch;
        physicalType    patch;
        nFaces          206;
        startFace       7064;
    }
    defaultFaces
    {
        type            patch;
        nFaces          9516;
        startFace       7270;
    }
)

// ************************************************************************* //
